LTspice 24.0.12 for Windows
Circuit: * C:\Users\geova\Desktop\Taller5\Nueva carpeta\Circuito con componentes pasivos.asc
Start Time: Sun May 18 16:46:22 2025
solver = Normal
Maximum thread count: 8
tnom = 27
temp = 27
method = modified trap
reltol = 0.005
Per .tran options, skipping operating point for transient analysis.
